models/ibr_psse/Benchmark_3bus_v33.raw
0,   100.00, 33, 0, 1, 60.00     / PSS(R)E UNIVERSITY-33.2    FRI, DEC 09 2022   9:46
IEEE BENCHMARK SYSTEM VII
HTTP://WWW.SEL.EESC.USP.BR/IEEE/
     1,'GEN G1      ', 230.0000,3,   1,   1,   1,1.00000,   0.0000,1.10000,0.90000,1.10000,0.90000
     2,'BUS 2       ', 230.0000,1,   1,   1,   1,0.99629,   1.1749,1.10000,0.90000,1.10000,0.90000
     3,'GEN G2      ',  13.8000,2,   1,   1,   1,0.99009,   2.5365,1.10000,0.90000,1.10000,0.90000
0 / END OF BUS DATA, BEGIN LOAD DATA
0 / END OF LOAD DATA, BEGIN FIXED SHUNT DATA
0 / END OF FIXED SHUNT DATA, BEGIN GENERATOR DATA
     1,'1 ',   -39.914,    11.878,   100.000,  -100.000,1.00000,     0,   100.000, 0.00000E+0, 2.50000E-1, 0.00000E+0, 0.00000E+0,1.00000,1,  100.0,   100.000,     0.000,   1,1.0000
     3,'RE',    40.000,   -10.000,   100.000,  -100.000,0.99009,     0,    50.000, 0.00000E+0, 1.00000E-5, 0.00000E+0, 0.00000E+0,1.00000,1,  100.0,   100.000,     0.000,   1,1.0000,    ,      ,    ,      ,    ,      ,1, 1.0000
0 / END OF GENERATOR DATA, BEGIN BRANCH DATA
     1,     2,'1 ', 4.97000E-3, 4.97000E-2,   0.00000, 9999.00, 9999.00, 9999.00,  0.00000,  0.00000,  0.00000,  0.00000,1,2,   1.00,   1,1.0000
0 / END OF BRANCH DATA, BEGIN TRANSFORMER DATA
     2,     3,     0,'1 ',1,1,1, 0.00000E+0, 0.00000E+0,2,'G1 STEP UP  ',1,   1,1.0000,   0,1.0000,   0,1.0000,   0,1.0000,'            '
 0.00000E+0, 5.86000E-2,   100.00
1.00000,   0.000,   0.000,     0.00,     0.00,     0.00, 0,      0, 1.10000, 0.90000, 1.10000, 0.90000, 999, 0, 0.00000, 0.00000,  0.000
1.00000,   0.000
0 / END OF TRANSFORMER DATA, BEGIN AREA DATA
0 / END OF AREA DATA, BEGIN TWO-TERMINAL DC DATA
0 / END OF TWO-TERMINAL DC DATA, BEGIN VSC DC LINE DATA
0 / END OF VSC DC LINE DATA, BEGIN IMPEDANCE CORRECTION DATA
0 / END OF IMPEDANCE CORRECTION DATA, BEGIN MULTI-TERMINAL DC DATA
0 / END OF MULTI-TERMINAL DC DATA, BEGIN MULTI-SECTION LINE DATA
0 / END OF MULTI-SECTION LINE DATA, BEGIN ZONE DATA
   1,'1           '
0 / END OF ZONE DATA, BEGIN INTER-AREA TRANSFER DATA
0 / END OF INTER-AREA TRANSFER DATA, BEGIN OWNER DATA
   1,'1           '
0 / END OF OWNER DATA, BEGIN FACTS DEVICE DATA
0 / END OF FACTS DEVICE DATA, BEGIN SWITCHED SHUNT DATA
0 / END OF SWITCHED SHUNT DATA, BEGIN GNE DATA
0 / END OF GNE DATA, BEGIN INDUCTION MACHINE DATA
0 / END OF INDUCTION MACHINE DATA
Q
